Info: SIMULATION PARAMETERS:
Info: TIMESTEP               2
Info: NUMBER OF STEPS        0
Info: STEPS PER CYCLE        10
Info: PERIODIC CELL BASIS 1  28.955 0 0
Info: PERIODIC CELL BASIS 2  0 28.864 0
Info: PERIODIC CELL BASIS 3  0 0 28.861
Info: PERIODIC CELL CENTER   -0.111763 -0.127061 0.0425804
Info: WRAPPING ALL CLUSTERS AROUND PERIODIC BOUNDARIES ON OUTPUT.
Info: FIRST LDB TIMESTEP     50
Info: LAST LDB TIMESTEP     -1
Info: HOM BACKGROUND SCALING 1
Info: PME BACKGROUND SCALING 1
Info: MIN ATOMS PER PATCH    40
Info: INITIAL TEMPERATURE    300
Info: CENTER OF MASS MOVING INITIALLY? NO
Info: DIELECTRIC             1
Info: EXCLUDE                SCALED ONE-FOUR
Info: 1-4 ELECTROSTATICS SCALED BY 1
Info: MODIFIED 1-4 VDW PARAMETERS WILL BE USED
Info: DCD FILENAME           alad-wb_mineq29.dcd
Info: DCD FREQUENCY          100
Info: DCD FIRST STEP         100
Info: DCD FILE WILL CONTAIN UNIT CELL DATA
Info: XST FILENAME           alad-wb_mineq29.xst
Info: XST FREQUENCY          100
Info: NO VELOCITY DCD OUTPUT
Info: NO FORCE DCD OUTPUT
Info: OUTPUT FILENAME        alad-wb_mineq29
Info: RESTART FILENAME       alad-wb_mineq29.restart
Info: RESTART FREQUENCY      100
Info: BINARY RESTART FILES WILL BE USED
Info: SWITCHING ACTIVE
Info: SWITCHING ON           10
Info: SWITCHING OFF          12
Info: PAIRLIST DISTANCE      13.5
Info: PAIRLIST SHRINK RATE   0.01
Info: PAIRLIST GROW RATE     0.01
Info: PAIRLIST TRIGGER       0.3
Info: PAIRLISTS PER CYCLE    2
Info: PAIRLISTS ENABLED
Info: MARGIN                 0.48
Info: HYDROGEN GROUP CUTOFF  2.5
Info: PATCH DIMENSION        16.48
Info: ENERGY OUTPUT STEPS    100
Info: CROSSTERM ENERGY INCLUDED IN DIHEDRAL
Info: TIMING OUTPUT STEPS    100
Info: PRESSURE OUTPUT STEPS  100
Info: LANGEVIN DYNAMICS ACTIVE
Info: LANGEVIN TEMPERATURE   300
Info: LANGEVIN USING BBK INTEGRATOR
Info: LANGEVIN DAMPING COEFFICIENT IS 1 INVERSE PS
Info: LANGEVIN DYNAMICS APPLIED TO HYDROGENS
Info: LANGEVIN PISTON PRESSURE CONTROL ACTIVE
Info:        TARGET PRESSURE IS 1 BAR
Info:     OSCILLATION PERIOD IS 200 FS
Info:             DECAY TIME IS 100 FS
Info:     PISTON TEMPERATURE IS 300 K
Info:       PRESSURE CONTROL IS GROUP-BASED
Info:    INITIAL STRAIN RATE IS 0 0 0
Info:       CELL FLUCTUATION IS ISOTROPIC
Info: PARTICLE MESH EWALD (PME) ACTIVE
Info: PME TOLERANCE               1e-06
Info: PME EWALD COEFFICIENT       0.257952
Info: PME INTERPOLATION ORDER     4
Info: PME GRID DIMENSIONS         32 32 32
Info: PME MAXIMUM GRID SPACING    1
Info: FULL ELECTROSTATIC EVALUATION FREQUENCY      2
Info: USING VERLET I (r-RESPA) MTS SCHEME.
Info: C1 SPLITTING OF LONG RANGE ELECTROSTATICS
Info: PLACING ATOMS IN PATCHES BY HYDROGEN GROUPS
Info: RIGID BONDS TO HYDROGEN : ALL
Info:         ERROR TOLERANCE : 1e-08
Info:          MAX ITERATIONS : 100
Info: RIGID WATER USING SETTLE ALGORITHM
Info: RANDOM NUMBER SEED     1491729628
Info: USE HYDROGEN BONDS?    NO
Info: COORDINATE PDB         alad-wb29.pdb
Info: STRUCTURE FILE         alad-wb29.psf
Info: PARAMETER file: CHARMM format!
Info: PARAMETERS             ../par_all27_prot_lipid.prm
Info: PARAMETERS             ../alad.prm
Info: USING ARITHMETIC MEAN TO COMBINE L-J SIGMA PARAMETERS
Info: SKIPPING rtf SECTION IN STREAM FILE
Info: SUMMARY OF PARAMETERS:
Info: 180 BONDS
Info: 447 ANGLES
Info: 566 DIHEDRAL
Info: 46 IMPROPER
Info: 6 CROSSTERM
Info: 119 VDW
Info: 0 VDW_PAIRS
Info: 0 NBTHOLE_PAIRS
Info: STRUCTURE SUMMARY:
Info: 2176 ATOMS
Info: 1457 BONDS
Info: 754 ANGLES
Info: 41 DIHEDRALS
Info: 4 IMPROPERS
Info: 1 CROSSTERMS
Info: 0 EXCLUSIONS
Info: 2166 RIGID BONDS
Info: 4362 DEGREES OF FREEDOM
Info: 728 HYDROGEN GROUPS
Info: 4 ATOMS IN LARGEST HYDROGEN GROUP
Info: 728 MIGRATION GROUPS
Info: 4 ATOMS IN LARGEST MIGRATION GROUP
Info: TOTAL MASS = 13079.2 amu
Info: TOTAL CHARGE = 2.23517e-08 e
Info: MASS DENSITY = 0.90043 g/cm^3
Info: ATOM DENSITY = 0.0902126 atoms/A^3
Info: ADDED 2252 IMPLICIT EXCLUSIONS
Info: NONBONDED TABLE R-SQUARED SPACING: 0.0625
Info: NONBONDED TABLE SIZE: 769 POINTS
Info: REMOVING COM VELOCITY 0.128596 0.0999767 -0.193057
Info: Updated CUDA force table with 4096 elements.
Info: Updated CUDA LJ table with 119 x 119 elements.
Info: Found 21 unique exclusion lists needing 28 bytes
TCL: Minimizing for 1000 steps
ETITLE: TS BOND ANGLE DIHED IMPRP ELECT VDW BOUNDARY MISC KINETIC TOTAL TEMP POTENTIAL TOTAL3 TEMPAVG PRESSURE GPRESSURE VOLUME PRESSAVG GPRESSAVG
ENERGY: 0 2.5662 10.9347 4.0659 1.1878 -6295.4764 455045.4303 0.0000 0.0000 0.0000 448768.7085 0.0000 448768.7085 448768.7085 0.0000 -200.6402 348128.6079 24120.7865 -200.6402 348128.6079
ENERGY: 200 5.0633 2.3990 1.9972 0.1624 -8294.2968 648.4037 0.0000 0.0000 0.0000 -7636.2712 0.0000 -7636.2712 -7636.2712 0.0000 -50.9213 -20616.4218 24120.7865 -50.9213 -20616.4218
ENERGY: 400 29.5421 11.6484 1.9031 0.1772 -8788.5501 808.8243 0.0000 0.0000 0.0000 -7936.4551 0.0000 -7936.4551 -7936.4551 0.0000 -36.2544 -21832.4326 24120.7865 -36.2544 -21832.4326
ENERGY: 600 15.7114 3.7856 1.8060 0.0628 -9142.0600 931.8161 0.0000 0.0000 0.0000 -8188.8782 0.0000 -8188.8782 -8188.8782 0.0000 -33.2146 -22884.1803 24120.7865 -33.2146 -22884.1803
ENERGY: 800 1.0316 1.5122 1.8283 0.0741 -9297.0916 973.0551 0.0000 0.0000 0.0000 -8319.5903 0.0000 -8319.5903 -8319.5903 0.0000 -32.0397 -23259.8137 24120.7865 -32.0397 -23259.8137
ENERGY: 1000 0.4865 1.4448 1.8020 0.0415 -9388.2207 996.5235 0.0000 0.0000 0.0000 -8387.9226 0.0000 -8387.9226 -8387.9226 0.0000 -31.1827 -23527.7128 24120.7865 -31.1827 -23527.7128
TCL: Running for 20000 steps
ETITLE: TS BOND ANGLE DIHED IMPRP ELECT VDW BOUNDARY MISC KINETIC TOTAL TEMP POTENTIAL TOTAL3 TEMPAVG PRESSURE GPRESSURE VOLUME PRESSAVG GPRESSAVG
ENERGY: 1000 0.4865 1.4448 1.8020 0.0415 -9388.2207 996.5235 0.0000 0.0000 1321.9473 -7065.9753 305.0134 -8387.9226 -7066.9204 305.0134 -3651.9210 -3615.8434 24120.7865 -3651.9210 -3615.8434
ENERGY: 5000 4.6611 11.7529 1.4003 0.3491 -7714.5095 725.5855 0.0000 0.0000 1315.3220 -5655.4387 303.4847 -6970.7607 -5653.1145 302.5501 -146.5072 -153.9008 21708.2983 72.4410 75.2322
ENERGY: 9000 5.4081 14.8270 3.9521 0.5365 -7812.2499 739.8880 0.0000 0.0000 1306.3453 -5741.2928 301.4135 -7047.6381 -5738.3027 301.0674 56.4906 86.2607 21385.6692 -127.1527 -118.4609
ENERGY: 13000 1.6636 17.1689 1.6540 0.4770 -7706.5929 702.3230 0.0000 0.0000 1277.5883 -5705.7182 294.7784 -6983.3065 -5704.2832 299.7581 -356.0980 -283.2961 21614.6195 8.1385 3.0420
ENERGY: 17000 4.4212 13.0654 4.9661 1.2882 -7734.7240 704.2335 0.0000 0.0000 1312.8225 -5693.9272 302.9080 -7006.7497 -5691.5674 299.9111 -412.5260 -453.1200 21604.7762 15.1395 12.1636
ENERGY: 21000 2.3651 11.5569 2.4460 0.3746 -7725.1859 679.3537 0.0000 0.0000 1299.9453 -5729.1442 299.9368 -7029.0895 -5725.7724 300.7316 -769.2422 -698.2980 21615.2093 109.0885 103.1585
